   16

Si      1.834707    1.618832    1.778304
Si     -0.015031    0.032434   -0.003373
Si      1.790801    5.207540    5.189995
Si     -0.010960    3.560318    3.588057
Si      5.201368    1.816525    5.159558
Si      3.433928    0.069029    3.685440
Si      5.277645    5.331741    8.758014
Si      3.440083    3.436196    6.911939
Si      5.305396    5.208882    1.670798
Si      3.559421    3.553319    0.039564
Si      5.284678    8.801767    5.260431
Si      3.573688    6.963638    3.563516
Si      8.743808    5.272639    5.250728
Si      6.884879    3.404983    3.406596
Si      8.731821    8.720856    8.767486
Si      6.964132    7.001463    6.972852
